# WEL package for MODFLOW-2005 generated by Flopy 3.9.5
         1         0 
         1         0 # stress period 1
         3         4        12          -0.015
         1         0 # stress period 2
         3         4        12           -0.03
         1         0 # stress period 3
         3         4        12           -0.04
         1         0 # stress period 4
         3         4        12             0.0
