# OC package for MODFLOW-2005 generated by Flopy 3.9.5
HEAD PRINT FORMAT   0
HEAD SAVE UNIT    51
DRAWDOWN PRINT FORMAT   0
COMPACT BUDGET AUX

period 1 step 5 
  save head

period 2 step 2 
  save head

period 3 step 2 
  save head

period 4 step 3 
  save head

