# DIS package for MODFLOW-2005 generated by Flopy 3.9.5
         4        15        20         4         1         2
  0  0  0  0
CONSTANT    1.000000E+02                           #delr                          
CONSTANT    1.000000E+02                           #delc                          
CONSTANT    2.000000E+02                           #model_top                     
CONSTANT    1.000000E+02                           #botm layer 1                  
CONSTANT    0.000000E+00                           #botm layer 2                  
CONSTANT   -1.000000E+02                           #botm layer 3                  
CONSTANT   -2.000000E+02                           #botm layer 4                  
 864000.000000             5  1.000000  TR
 432000.000000             2  1.000000  TR
 432000.000000             2  1.000000  TR
 864000.000000             3  1.000000  TR
