# Name file for MODFLOW-2005, generated by Flopy version 3.9.5.
#xll:0.0; yll:0.0; rotation:0.0; units:meters; lenuni:2; start_datetime:1-1-1970
LIST               2  EjemploFlopy.list
DIS               11  EjemploFlopy.dis
BAS6              13  EjemploFlopy.bas
WEL               20  EjemploFlopy.wel
LPF               15  EjemploFlopy.lpf
OC                14  EjemploFlopy.oc
PCG               27  EjemploFlopy.pcg
DATA(BINARY)      51  EjemploFlopy.hds REPLACE
